# generated using pymatgen
data_Nd(CuGe)2
_symmetry_space_group_name_H-M   'P 1'
_cell_length_a   4.13741033
_cell_length_b   4.13741033
_cell_length_c   10.16562754
_cell_angle_alpha   90.00000000
_cell_angle_beta   90.00000000
_cell_angle_gamma   90.00000000
_symmetry_Int_Tables_number   1
_chemical_formula_structural   Nd(CuGe)2
_chemical_formula_sum   'Nd2 Cu4 Ge4'
_cell_volume   174.01688196
_cell_formula_units_Z   2
loop_
 _symmetry_equiv_pos_site_id
 _symmetry_equiv_pos_as_xyz
  1  'x, y, z'
loop_
 _atom_type_symbol
 _atom_type_oxidation_number
  Nd2+  2.0
  Cu+  1.0
  Ge2-  -2.0
loop_
 _atom_site_type_symbol
 _atom_site_label
 _atom_site_symmetry_multiplicity
 _atom_site_fract_x
 _atom_site_fract_y
 _atom_site_fract_z
 _atom_site_occupancy
  Nd2+  Nd0  1  0.00000000  0.00000000  0.00000000  1
  Nd2+  Nd1  1  0.50000000  0.50000000  0.50000000  1
  Cu+  Cu2  1  0.00000000  0.50000000  0.25000000  1
  Cu+  Cu3  1  0.50000000  0.00000000  0.25000000  1
  Cu+  Cu4  1  0.50000000  0.00000000  0.75000000  1
  Cu+  Cu5  1  0.00000000  0.50000000  0.75000000  1
  Ge2-  Ge6  1  0.50000000  0.50000000  0.12349971  1
  Ge2-  Ge7  1  0.00000000  0.00000000  0.37650029  1
  Ge2-  Ge8  1  0.00000000  0.00000000  0.62349971  1
  Ge2-  Ge9  1  0.50000000  0.50000000  0.87650029  1
