# generated using pymatgen
data_PrVO4
_symmetry_space_group_name_H-M   'P 1'
_cell_length_a   7.40918577
_cell_length_b   7.40918577
_cell_length_c   6.48611193
_cell_angle_alpha   90.00000000
_cell_angle_beta   90.00000000
_cell_angle_gamma   90.00000000
_symmetry_Int_Tables_number   1
_chemical_formula_structural   PrVO4
_chemical_formula_sum   'Pr4 V4 O16'
_cell_volume   356.06181929
_cell_formula_units_Z   4
loop_
 _symmetry_equiv_pos_site_id
 _symmetry_equiv_pos_as_xyz
  1  'x, y, z'
loop_
 _atom_type_symbol
 _atom_type_oxidation_number
  Pr3+  3.0
  V5+  5.0
  O2-  -2.0
loop_
 _atom_site_type_symbol
 _atom_site_label
 _atom_site_symmetry_multiplicity
 _atom_site_fract_x
 _atom_site_fract_y
 _atom_site_fract_z
 _atom_site_occupancy
  Pr3+  Pr0  1  0.50000000  0.00000000  0.25000000  1
  Pr3+  Pr1  1  0.00000000  0.00000000  0.00000000  1
  Pr3+  Pr2  1  0.00000000  0.50000000  0.75000000  1
  Pr3+  Pr3  1  0.50000000  0.50000000  0.50000000  1
  V5+  V4  1  0.00000000  0.00000000  0.50000000  1
  V5+  V5  1  0.50000000  0.00000000  0.75000000  1
  V5+  V6  1  0.50000000  0.50000000  0.00000000  1
  V5+  V7  1  0.00000000  0.50000000  0.25000000  1
  O2-  O8  1  0.82098113  0.00000000  0.33141945  1
  O2-  O9  1  0.17901888  0.00000000  0.33141945  1
  O2-  O10  1  0.50000000  0.67901888  0.16858055  1
  O2-  O11  1  0.32098112  0.00000000  0.91858055  1
  O2-  O12  1  0.67901888  0.00000000  0.91858055  1
  O2-  O13  1  0.00000000  0.82098113  0.66858055  1
  O2-  O14  1  0.50000000  0.17901888  0.58141945  1
  O2-  O15  1  0.00000000  0.32098112  0.08141945  1
  O2-  O16  1  0.32098112  0.50000000  0.83141945  1
  O2-  O17  1  0.67901888  0.50000000  0.83141945  1
  O2-  O18  1  0.00000000  0.17901888  0.66858055  1
  O2-  O19  1  0.82098112  0.50000000  0.41858055  1
  O2-  O20  1  0.17901888  0.50000000  0.41858055  1
  O2-  O21  1  0.50000000  0.32098112  0.16858055  1
  O2-  O22  1  0.00000000  0.67901888  0.08141945  1
  O2-  O23  1  0.50000000  0.82098112  0.58141945  1
