# generated using pymatgen
data_Th(MnSi)2
_symmetry_space_group_name_H-M   'P 1'
_cell_length_a   3.97541746
_cell_length_b   3.97541746
_cell_length_c   10.56093760
_cell_angle_alpha   90.00000000
_cell_angle_beta   90.00000000
_cell_angle_gamma   90.00000000
_symmetry_Int_Tables_number   1
_chemical_formula_structural   Th(MnSi)2
_chemical_formula_sum   'Th2 Mn4 Si4'
_cell_volume   166.90446603
_cell_formula_units_Z   2
loop_
 _symmetry_equiv_pos_site_id
 _symmetry_equiv_pos_as_xyz
  1  'x, y, z'
loop_
 _atom_type_symbol
 _atom_type_oxidation_number
  Th4+  4.0
  Mn2+  2.0
  Si4-  -4.0
loop_
 _atom_site_type_symbol
 _atom_site_label
 _atom_site_symmetry_multiplicity
 _atom_site_fract_x
 _atom_site_fract_y
 _atom_site_fract_z
 _atom_site_occupancy
  Th4+  Th0  1  0.00000000  0.00000000  0.00000000  1
  Th4+  Th1  1  0.50000000  0.50000000  0.50000000  1
  Mn2+  Mn2  1  0.00000000  0.50000000  0.25000000  1
  Mn2+  Mn3  1  0.50000000  0.00000000  0.25000000  1
  Mn2+  Mn4  1  0.50000000  0.00000000  0.75000000  1
  Mn2+  Mn5  1  0.00000000  0.50000000  0.75000000  1
  Si4-  Si6  1  0.00000000  0.00000000  0.37949373  1
  Si4-  Si7  1  0.50000000  0.50000000  0.12050627  1
  Si4-  Si8  1  0.50000000  0.50000000  0.87949373  1
  Si4-  Si9  1  0.00000000  0.00000000  0.62050627  1
