# generated using pymatgen
data_U3O8
_symmetry_space_group_name_H-M   'P 1'
_cell_length_a   6.79339886
_cell_length_b   6.79339886
_cell_length_c   4.13286379
_cell_angle_alpha   90.00000000
_cell_angle_beta   90.00000000
_cell_angle_gamma   120.00000000
_symmetry_Int_Tables_number   1
_chemical_formula_structural   U3O8
_chemical_formula_sum   'U3 O8'
_cell_volume   165.17942581
_cell_formula_units_Z   1
loop_
 _symmetry_equiv_pos_site_id
 _symmetry_equiv_pos_as_xyz
  1  'x, y, z'
loop_
 _atom_type_symbol
 _atom_type_oxidation_number
  U5.33+  5.333333333333333
  O2-  -2.0
loop_
 _atom_site_type_symbol
 _atom_site_label
 _atom_site_symmetry_multiplicity
 _atom_site_fract_x
 _atom_site_fract_y
 _atom_site_fract_z
 _atom_site_occupancy
  U5.33+  U0  1  0.00000000  0.35153600  0.00000000  1
  U5.33+  U1  1  0.64846400  0.64846400  0.00000000  1
  U5.33+  U2  1  0.35153600  0.00000000  0.00000000  1
  O2-  O3  1  0.00000000  0.35899597  0.50000000  1
  O2-  O4  1  0.64100403  0.64100403  0.50000000  1
  O2-  O5  1  0.35899597  0.00000000  0.50000000  1
  O2-  O6  1  0.33333333  0.66666667  0.00000000  1
  O2-  O7  1  0.66666667  0.33333333  0.00000000  1
  O2-  O8  1  0.74734086  0.00000000  0.00000000  1
  O2-  O9  1  0.25265914  0.25265914  0.00000000  1
  O2-  O10  1  0.00000000  0.74734086  0.00000000  1
